OPT_V9/Results/My_campus_w_initial_sub_3_active_25_03_11_44/powerflow_results_t16.txt
Pandapower Network Debug Info
==================================================

BUS:
       vm_pu  va_degree      p_mw    q_mvar
0   1.002764   0.126972 -0.001952 -0.001786
1   1.004253   0.218803 -0.001983 -0.000434
2   1.004442   0.301835 -0.000915  0.000903
3   1.002853   0.213271 -0.001185  0.001345
4   0.997280   0.237650 -0.000138  0.002870
5   0.999888   0.139528 -0.000021  0.002366
6   1.001483   0.176017 -0.001496 -0.000434
7   1.000887   0.018737 -0.001145 -0.000435
8   0.999847   0.029480 -0.001136 -0.000974
9   0.999938   0.000614  0.007236  0.007633
10  0.999929   0.000632  0.007656  0.004521
11  0.999922   0.000698  0.007631  0.008299
12  0.999882   0.000946  0.007824  0.002851
13  0.999867   0.001083  0.010642  0.007482
14  0.999859   0.001171  0.008838  0.010031
15  0.999967   0.000486  0.000000  0.000000
16  0.999967   0.000487  0.000000  0.000000
17  0.999885   0.001010  0.000000  0.000000
18  0.999885   0.001012  0.000000  0.000000
19  1.000000   0.000000 -0.016536 -0.025502
20  1.000000   0.000003  0.000000  0.000000
21  1.000000   0.000000 -0.023410 -0.028774
22  1.000000   0.000004  0.000000  0.000000
--------------------------------------------------

LINE:
    p_from_mw  q_from_mvar   p_to_mw  q_to_mvar         pl_mw       ql_mvar  i_from_ka   i_to_ka      i_ka  vm_from_pu  va_from_degree  vm_to_pu  va_to_degree  loading_percent
0    0.016526     0.021502 -0.016525  -0.021502  7.193594e-07  5.608964e-07   0.001044  0.001044  0.001044    1.000000        0.000003  0.999967      0.000486         0.453831
1    0.023399     0.024774 -0.023396  -0.024772  3.123717e-06  2.435613e-06   0.001312  0.001312  0.001312    1.000000        0.000004  0.999885      0.001010         0.570283
2    0.022524     0.020455 -0.022524  -0.020454  7.159018e-07  5.582005e-07   0.001171  0.001171  0.001171    0.999967        0.000486  0.999938      0.000614         0.509188
3    0.007824     0.002851 -0.007824  -0.002851  2.398724e-08  1.870325e-08   0.000321  0.000321  0.000321    0.999885        0.001010  0.999882      0.000946         0.139375
4    0.019481     0.017514 -0.019480  -0.017514  3.753183e-07  2.926418e-07   0.001008  0.001008  0.001008    0.999885        0.001010  0.999867      0.001083         0.438438
5   -0.006009     0.000047  0.006026  -0.000034  1.689281e-05  1.317160e-05   0.008674  0.008674  0.008674    0.999967        0.000487  1.002764      0.126972         3.771457
6   -0.001511     0.001937  0.001516  -0.001934  4.684009e-06  3.652199e-06   0.003547  0.003547  0.003547    0.999885        0.001012  0.999888      0.139528         1.541987
7   -0.001144    -0.000434  0.001145   0.000435  1.012273e-06  7.892861e-07   0.001767  0.001767  0.001767    0.999885        0.001012  1.000887      0.018737         0.768163
8   -0.001263     0.001904  0.001264  -0.001903  8.978579e-07  7.000746e-07   0.003298  0.003298  0.003298    0.999885        0.001012  0.999847      0.029480         1.434069
9   -0.015287    -0.012820  0.015288   0.012821  1.376810e-07  1.073521e-07   0.000768  0.000768  0.000768    0.999929        0.000632  0.999938      0.000614         0.333911
10  -0.007631    -0.008299  0.007631   0.008299  6.217494e-08  4.847883e-08   0.000434  0.000434  0.000434    0.999922        0.000698  0.999929      0.000632         0.188688
11  -0.008838    -0.010031  0.008838   0.010032  8.743823e-08  6.817703e-08   0.000515  0.000515  0.000515    0.999859        0.001171  0.999867      0.001083         0.223762
12   0.002897    -0.000470 -0.002891   0.000474  5.051023e-06  3.938366e-06   0.004217  0.004217  0.004217    1.004253        0.218803  1.002764      0.126972         1.833657
13   0.001185    -0.001345 -0.001182   0.001347  2.132414e-06  1.662679e-06   0.002579  0.002579  0.002579    1.002853        0.213271  1.002764      0.126972         1.121506
14   0.000915    -0.000903 -0.000913   0.000904  1.480948e-06  1.154720e-06   0.001847  0.001847  0.001847    1.004442        0.301835  1.004253      0.218803         0.802961
15  -0.000128     0.002877  0.000138  -0.002870  1.009736e-05  7.873078e-06   0.004158  0.004158  0.004158    0.999847        0.029480  0.997280      0.237650         1.807815
16   0.001496     0.000434 -0.001494  -0.000433  2.107482e-06  1.643239e-06   0.002246  0.002246  0.002246    1.001483        0.176017  0.999888      0.139528         0.976380
--------------------------------------------------

TRAFO:
    p_hv_mw  q_hv_mvar   p_lv_mw  q_lv_mvar    pl_mw  ql_mvar   i_hv_ka   i_lv_ka  vm_hv_pu  va_hv_degree  vm_lv_pu  va_lv_degree  loading_percent
0 -0.005999   0.001047  0.006009  -0.000047  0.00001    0.001  0.000234  0.008674  0.999967      0.000486  0.999967      0.000487         0.060903
1 -0.003909   0.004407  0.003919  -0.003407  0.00001    0.001  0.000227  0.007496  0.999885      0.001010  0.999885      0.001012         0.058912
2  0.016536   0.025502 -0.016526  -0.021502  0.00001    0.004  0.000251  0.001044  1.000000      0.000000  1.000000      0.000003         0.075985
3  0.023410   0.028774 -0.023399  -0.024774  0.00001    0.004  0.000306  0.001312  1.000000      0.000000  1.000000      0.000004         0.092735
--------------------------------------------------
